6

    C            0.000000000000     0.000000000000    -0.662416302527
    C            0.000000000000     0.000000000000     0.662416302527
    H            0.924482759144     0.000000000000     1.230616236343
    H           -0.924482759144    -0.000000000000     1.230616236343
    H            0.924482759144     0.000000000000    -1.230616236343
    H           -0.924482759144    -0.000000000000    -1.230616236343
