4
Coordinates from ORCA-job 28_PH3
  P   -0.00540104786760     -0.00097746658291      0.58049874887561
  H   -0.65666240840560     -0.99160366873770     -0.20139258944179
  H   -0.52745882169825      1.06716428264152     -0.19595488588388
  H   1.18952227197145     -0.07458314632092     -0.18315127354994
