6
Coordinates from ORCA-job 31_CH3OH
  C   -0.36980384424285     -0.03895412611246     -0.01216346331107
  O   1.00755270100708     -0.34822022678086     -0.27231211388130
  H   -0.52999106921311      1.04143721211187      0.10051848068462
  H   -0.61832220693246     -0.53308505280135      0.92828548807156
  H   -1.02937846681419     -0.42443309109718     -0.80071636634934
  H   1.25650004619553      0.06943042267998     -1.10941697021447
