4
Coordinates from ORCA-job 02_C2H2
  C   0.00000000088008     -0.00000000146481     -0.59921791245257
  C   -0.00000000980527      0.00000000741557      0.59921791111815
  H   0.00000000268168     -0.00000000149529     -1.66264847072989
  H   0.00000000624351     -0.00000000445547      1.66264847206431
