5
Coordinates from ORCA-job 06_CH4
  C   0.00000784302894     -0.00003280185900      0.00004451336323
  H   0.55303573232495      0.79816825361103      0.49523275054892
  H   0.68181747251344     -0.81165647530394     -0.25343288254510
  H   -0.77657988909683     -0.37273504684362      0.66799438982296
  H   -0.45838115777051      0.38635606939553     -0.90983886619000
