4
Coordinates from ORCA-job 16_H2CS
  C   -0.11153078953258      0.00888578264147      0.00128188410984
  S   1.49072835569864     -0.11925343391506     -0.01638265951240
  H   -0.66224541038823      0.27362836921431      0.90340757412319
  H   -0.71695629577783     -0.16332301294072     -0.88822739572062
