4
Coordinates from ORCA-job 28_PH3
  P   -0.00530397940079     -0.00101116753016      0.57682306941477
  H   -0.65628447844522     -0.99078204291926     -0.20016261754244
  H   -0.52711275931161      1.06627184742370     -0.19475578556994
  H   1.18870121115761     -0.07447863597428     -0.18190466630240
