6
Coordinates from ORCA-job 31_CH3OH
  C   -0.36689610350516     -0.03950641516623     -0.01312377446126
  O   1.00216977348285     -0.34632939549879     -0.27357657533428
  H   -0.52850682919137      1.03815918987374      0.09971881009315
  H   -0.61712079739357     -0.53149000321879      0.92547354872136
  H   -1.02692702365787     -0.42362274707406     -0.79857711210500
  H   1.25383814026512      0.06896450908412     -1.10571984191398
