6

    C            0.000000000000     0.000000000000    -0.661018412249
    C            0.000000000000     0.000000000000     0.661018412249
    H            0.921293792424     0.000000000000     1.227010517217
    H           -0.921293792424    -0.000000000000     1.227010517217
    H            0.921293792424     0.000000000000    -1.227010517217
    H           -0.921293792424    -0.000000000000    -1.227010517217
