6

    C            0.000000000000    -0.000000000000    -0.662069137077
    C            0.000000000000    -0.000000000000     0.662069137077
    H            0.924054658264     0.000000000000     1.230401636370
    H           -0.924054658264    -0.000000000000     1.230401636370
    H            0.924054658264     0.000000000000    -1.230401636370
    H           -0.924054658264    -0.000000000000    -1.230401636370
