6

    C            0.000000000000     0.000000000000    -0.661263413716
    C            0.000000000000     0.000000000000     0.661263413716
    H            0.921694592955     0.000000000000     1.227385365070
    H           -0.921694592955    -0.000000000000     1.227385365070
    H            0.921694592955     0.000000000000    -1.227385365070
    H           -0.921694592955    -0.000000000000    -1.227385365070
