6

    C           -0.028637144337     0.727615123861     0.000000000000
    H           -1.069802921398     1.039246893946     0.000000000000
    H            0.454454491942     1.138382871029     0.889650331947
    H            0.454454491942     1.138382871029    -0.889650331947
    O           -0.024192108450    -0.692113755840     0.000000000000
    H            0.885817825887    -0.995253704090     0.000000000000
