6

    C            0.000000000000    -0.000000000000    -0.666115183170
    C            0.000000000000    -0.000000000000     0.666115183170
    H            0.929672473425     0.000000000000     1.235959025979
    H           -0.929672473425    -0.000000000000     1.235959025979
    H            0.929672473425     0.000000000000    -1.235959025979
    H           -0.929672473425    -0.000000000000    -1.235959025979
