6

    C           -0.030116784883     0.725871682787     0.000000000000
    H           -1.075330134019     1.038378348543     0.000000000000
    H            0.452991646338     1.143347329316     0.892094241974
    H            0.452991646338     1.143347329316    -0.892094241974
    O           -0.022812182876    -0.691895699175     0.000000000000
    H            0.889988135976    -0.987015938596     0.000000000000
