6

    C            0.000000000000     0.000000000000    -0.662195341502
    C            0.000000000000     0.000000000000     0.662195341502
    H            0.924144860941     0.000000000000     1.230452441564
    H           -0.924144860941    -0.000000000000     1.230452441564
    H            0.924144860941     0.000000000000    -1.230452441564
    H           -0.924144860941    -0.000000000000    -1.230452441564
