6

    C           -0.030188153950     0.727107950285     0.000000000000
    H           -1.074945922111     1.037884121170     0.000000000000
    H            0.454156627903     1.139135627983     0.892436774281
    H            0.454156627903     1.139135627983    -0.892436774281
    O           -0.022702952793    -0.691761138816     0.000000000000
    H            0.886390179498    -0.994953904383     0.000000000000
