6

    C           -0.030947212488     0.725677063172     0.000000000000
    H           -1.072321858881     1.035139433988     0.000000000000
    H            0.449310474013     1.141299466851     0.888615248265
    H            0.449310474013     1.141299466851    -0.888615248265
    O           -0.021819166803    -0.691183559202     0.000000000000
    H            0.888470079012    -0.988666174839     0.000000000000
