4
Coordinates from ORCA-job 16_H2CS
  C   -0.08956977242016      0.00498102741968      0.00034683192176
  S   1.57370901355746     -0.12500666595256     -0.01577679192139
  H   -0.71399279355390      0.27112376758522      0.87401417077524
  H   -0.77015058758339     -0.15116042405234     -0.85850480777561
