6
Coordinates from ORCA-job 31_CH3OH
  C   -0.44067042265731     -0.01669261725740     -0.00328306730510
  O   0.92502780691367     -0.27150513442181     -0.31810664184278
  H   -0.53426655666234      1.05281057083785      0.13565395949788
  H   -0.57999750098447     -0.55429976609312      0.93433614381431
  H   -1.02716413442394     -0.44847222175564     -0.80266958290954
  H   1.37362796781440      0.00433430669011     -1.11173575625477
