6

    C            0.000000000000    -0.000000000000    -0.660927535244
    C            0.000000000000    -0.000000000000     0.660927535244
    H            0.921492844642     0.000000000000     1.227393009123
    H           -0.921492844642    -0.000000000000     1.227393009123
    H            0.921492844642     0.000000000000    -1.227393009123
    H           -0.921492844642    -0.000000000000    -1.227393009123
