6

    C            0.000000000000    -0.000000000000    -0.665238362980
    C            0.000000000000    -0.000000000000     0.665238362980
    H            0.931875983267     0.000000000000     1.236259536440
    H           -0.931875983267    -0.000000000000     1.236259536440
    H            0.931875983267     0.000000000000    -1.236259536440
    H           -0.931875983267    -0.000000000000    -1.236259536440
