6

    C           -0.030675428111     0.721072566392     0.000000000000
    H           -1.082467741043     1.038624030446     0.000000000000
    H            0.451355119550     1.155814119273     0.895543411950
    H            0.451355119550     1.155814119273    -0.895543411950
    O           -0.022469054871    -0.690914193057     0.000000000000
    H            0.901604775348    -0.970630158005     0.000000000000
